total_Gibbs_free_energy -2164.660793
 OpenBabel10182112043D

 41 43  0  0  1  0  0  0  0  0999 V2000
   -1.2455   -0.6656   -0.6189 Pd  0  0  0  0  0  0  0  0  0  0  0  0
    1.0149   -0.5777   -0.2133 P   0  0  0  0  0  4  0  0  0  0  0  0
   -1.3794   -3.1139   -0.4577 Cl  0  0  0  0  0  0  0  0  0  0  0  0
    2.7942    3.6952   -0.7067 C   0  0  0  0  0  0  0  0  0  0  0  0
    3.0741    2.7148   -1.6584 C   0  0  0  0  0  0  0  0  0  0  0  0
    2.5743    1.4191   -1.5065 C   0  0  0  0  0  0  0  0  0  0  0  0
    1.7834    1.0869   -0.3973 C   0  0  0  0  0  0  0  0  0  0  0  0
    1.4980    2.0846    0.5513 C   0  0  0  0  0  0  0  0  0  0  0  0
    2.0044    3.3743    0.4003 C   0  0  0  0  0  0  0  0  0  0  0  0
    3.1846    4.7022   -0.8267 H   0  0  0  0  0  0  0  0  0  0  0  0
    3.6863    2.9538   -2.5243 H   0  0  0  0  0  0  0  0  0  0  0  0
    2.8056    0.6667   -2.2540 H   0  0  0  0  0  0  0  0  0  0  0  0
    0.8824    1.8502    1.4157 H   0  0  0  0  0  0  0  0  0  0  0  0
    1.7782    4.1308    1.1474 H   0  0  0  0  0  0  0  0  0  0  0  0
    3.4109   -3.2419   -3.1608 C   0  0  0  0  0  0  0  0  0  0  0  0
    4.0216   -2.7796   -1.9927 C   0  0  0  0  0  0  0  0  0  0  0  0
    3.3065   -1.9885   -1.0954 C   0  0  0  0  0  0  0  0  0  0  0  0
    1.9699   -1.6511   -1.3602 C   0  0  0  0  0  0  0  0  0  0  0  0
    1.3586   -2.1311   -2.5260 C   0  0  0  0  0  0  0  0  0  0  0  0
    2.0804   -2.9183   -3.4246 C   0  0  0  0  0  0  0  0  0  0  0  0
    3.9691   -3.8628   -3.8571 H   0  0  0  0  0  0  0  0  0  0  0  0
    5.0547   -3.0397   -1.7769 H   0  0  0  0  0  0  0  0  0  0  0  0
    3.7877   -1.6440   -0.1848 H   0  0  0  0  0  0  0  0  0  0  0  0
    0.3104   -1.9159   -2.7085 H   0  0  0  0  0  0  0  0  0  0  0  0
    1.5937   -3.2914   -4.3218 H   0  0  0  0  0  0  0  0  0  0  0  0
    2.2976   -2.0175    4.0213 C   0  0  0  0  0  0  0  0  0  0  0  0
    1.1688   -2.5519    3.3984 C   0  0  0  0  0  0  0  0  0  0  0  0
    0.7723   -2.1017    2.1379 C   0  0  0  0  0  0  0  0  0  0  0  0
    1.5128   -1.1053    1.4830 C   0  0  0  0  0  0  0  0  0  0  0  0
    2.6491   -0.5701    2.1140 C   0  0  0  0  0  0  0  0  0  0  0  0
    3.0368   -1.0255    3.3747 C   0  0  0  0  0  0  0  0  0  0  0  0
    2.6003   -2.3704    5.0039 H   0  0  0  0  0  0  0  0  0  0  0  0
    0.5882   -3.3269    3.8923 H   0  0  0  0  0  0  0  0  0  0  0  0
   -0.0964   -2.5358    1.6496 H   0  0  0  0  0  0  0  0  0  0  0  0
    3.2314    0.2072    1.6290 H   0  0  0  0  0  0  0  0  0  0  0  0
    3.9179   -0.6015    3.8502 H   0  0  0  0  0  0  0  0  0  0  0  0
   -1.4281    1.3725   -0.8812 C   0  0  0  0  0  0  0  0  0  1  0  0
   -2.7767    1.4641   -1.6212 C   0  0  0  0  0  0  0  0  0  2  0  0
   -3.3970    2.2467   -1.1608 H   0  0  0  0  0  0  0  0  0  0  0  0
   -3.5063    0.1186   -1.3621 C   1  0  0  0  0  0  0  0  0  3  0  0
   -2.6564    1.8143   -3.0964 R#  0  0  0  0  0  0  0  0  0  4  0  0
  1  3  1  1  0  0  0
  1  2  1  0  0  0  0
  2 29  1  0  0  0  0
  4  9  1  0  0  0  0
  5  6  1  0  0  0  0
  5  4  2  0  0  0  0
  6  7  2  0  0  0  0
  7  2  1  0  0  0  0
  7  8  1  0  0  0  0
  8 13  1  0  0  0  0
  9  8  2  0  0  0  0
  9 14  1  0  0  0  0
 10  4  1  0  0  0  0
 11  5  1  0  0  0  0
 12  6  1  0  0  0  0
 15 16  1  0  0  0  0
 16 22  1  0  0  0  0
 16 17  2  0  0  0  0
 17 23  1  0  0  0  0
 18 17  1  0  0  0  0
 18  2  1  0  0  0  0
 19 18  2  0  0  0  0
 20 15  2  0  0  0  0
 20 19  1  0  0  0  0
 21 15  1  0  0  0  0
 24 19  1  0  0  0  0
 25 20  1  0  0  0  0
 26 32  1  0  0  0  0
 27 33  1  0  0  0  0
 27 26  1  0  0  0  0
 28 27  2  0  0  0  0
 29 30  2  0  0  0  0
 29 28  1  0  0  0  0
 30 31  1  0  0  0  0
 31 36  1  0  0  0  0
 31 26  2  0  0  0  0
 34 28  1  0  0  0  0
 35 30  1  0  0  0  0
 37  1  1  0  0  0  0
 38 40  1  0  0  0  0
 38 39  1  1  0  0  0
 38 37  1  0  0  0  0
 41 38  1  0  0  0  0
M  END
$$$$
