total_Gibbs_free_energy -2164.644152
 OpenBabel10182111453D

 41 43  0  0  1  0  0  0  0  0999 V2000
   -1.0713   -1.1835   -0.0181 Pd  0  0  0  0  0  0  0  0  0  0  0  0
   -1.6660    1.1852    0.7776 P   0  0  0  0  0  4  0  0  0  0  0  0
   -3.3781   -1.7734    0.0409 Cl  0  0  0  0  0  0  0  0  0  0  0  0
    1.5436    4.5816    0.9195 C   0  0  0  0  0  0  0  0  0  0  0  0
    1.4928    3.6037    1.9167 C   0  0  0  0  0  0  0  0  0  0  0  0
    0.5206    2.6051    1.8722 C   0  0  0  0  0  0  0  0  0  0  0  0
   -0.4322    2.5699    0.8390 C   0  0  0  0  0  0  0  0  0  0  0  0
   -0.3710    3.5555   -0.1564 C   0  0  0  0  0  0  0  0  0  0  0  0
    0.6093    4.5507   -0.1164 C   0  0  0  0  0  0  0  0  0  0  0  0
    2.2987    5.3625    0.9550 H   0  0  0  0  0  0  0  0  0  0  0  0
    2.2100    3.6198    2.7340 H   0  0  0  0  0  0  0  0  0  0  0  0
    0.4919    1.8569    2.6599 H   0  0  0  0  0  0  0  0  0  0  0  0
   -1.0973    3.5562   -0.9635 H   0  0  0  0  0  0  0  0  0  0  0  0
    0.6333    5.3095   -0.8947 H   0  0  0  0  0  0  0  0  0  0  0  0
   -3.2877    1.0903    5.1466 C   0  0  0  0  0  0  0  0  0  0  0  0
   -2.8507    2.3002    4.6038 C   0  0  0  0  0  0  0  0  0  0  0  0
   -2.3661    2.3475    3.2969 C   0  0  0  0  0  0  0  0  0  0  0  0
   -2.3126    1.1835    2.5099 C   0  0  0  0  0  0  0  0  0  0  0  0
   -2.7588   -0.0265    3.0645 C   0  0  0  0  0  0  0  0  0  0  0  0
   -3.2419   -0.0694    4.3735 C   0  0  0  0  0  0  0  0  0  0  0  0
   -3.6601    1.0532    6.1673 H   0  0  0  0  0  0  0  0  0  0  0  0
   -2.8826    3.2094    5.1991 H   0  0  0  0  0  0  0  0  0  0  0  0
   -2.0140    3.2930    2.8956 H   0  0  0  0  0  0  0  0  0  0  0  0
   -2.7479   -0.9299    2.4638 H   0  0  0  0  0  0  0  0  0  0  0  0
   -3.5833   -1.0156    4.7856 H   0  0  0  0  0  0  0  0  0  0  0  0
   -5.0019    2.9469   -1.9485 C   0  0  0  0  0  0  0  0  0  0  0  0
   -4.0371    2.0763   -2.4572 C   0  0  0  0  0  0  0  0  0  0  0  0
   -3.0598    1.5445   -1.6150 C   0  0  0  0  0  0  0  0  0  0  0  0
   -3.0231    1.8921   -0.2564 C   0  0  0  0  0  0  0  0  0  0  0  0
   -4.0006    2.7615    0.2478 C   0  0  0  0  0  0  0  0  0  0  0  0
   -4.9836    3.2830   -0.5934 C   0  0  0  0  0  0  0  0  0  0  0  0
   -5.7708    3.3523   -2.6011 H   0  0  0  0  0  0  0  0  0  0  0  0
   -4.0530    1.7961   -3.5074 H   0  0  0  0  0  0  0  0  0  0  0  0
   -2.3309    0.8412   -2.0088 H   0  0  0  0  0  0  0  0  0  0  0  0
   -4.0051    3.0240    1.3013 H   0  0  0  0  0  0  0  0  0  0  0  0
   -5.7399    3.9498   -0.1866 H   0  0  0  0  0  0  0  0  0  0  0  0
   -0.6859   -3.1329   -0.5512 C   0  0  0  0  0  0  0  0  0  1  0  0
    0.4744   -2.9601   -1.5369 C   0  0  0  0  0  0  0  0  0  2  0  0
    1.2775   -3.6811   -1.3213 H   0  0  0  0  0  0  0  0  0  0  0  0
    1.0335   -1.5512   -1.2184 C   1  0  0  0  0  0  0  0  0  3  0  0
    0.0965   -3.1366   -2.9983 R#  0  0  0  0  0  0  0  0  0  4  0  0
  1  3  1  6  0  0  0
  1  2  1  0  0  0  0
  2  7  1  0  0  0  0
  2 18  1  0  0  0  0
  4 10  1  0  0  0  0
  4  5  1  0  0  0  0
  5 11  1  0  0  0  0
  6  5  2  0  0  0  0
  6 12  1  0  0  0  0
  7  6  1  0  0  0  0
  8  9  1  0  0  0  0
  8  7  2  0  0  0  0
  9  4  2  0  0  0  0
 13  8  1  0  0  0  0
 14  9  1  0  0  0  0
 15 21  1  0  0  0  0
 16 15  1  0  0  0  0
 16 22  1  0  0  0  0
 17 16  2  0  0  0  0
 18 19  2  0  0  0  0
 18 17  1  0  0  0  0
 19 20  1  0  0  0  0
 20 25  1  0  0  0  0
 20 15  2  0  0  0  0
 23 17  1  0  0  0  0
 24 19  1  0  0  0  0
 26 31  1  0  0  0  0
 27 26  2  0  0  0  0
 27 28  1  0  0  0  0
 28 29  2  0  0  0  0
 29 30  1  0  0  0  0
 29  2  1  0  0  0  0
 30 35  1  0  0  0  0
 31 36  1  0  0  0  0
 31 30  2  0  0  0  0
 32 26  1  0  0  0  0
 33 27  1  0  0  0  0
 34 28  1  0  0  0  0
 37  1  1  0  0  0  0
 38 39  1  1  0  0  0
 38 40  1  0  0  0  0
 38 37  1  0  0  0  0
 41 38  1  0  0  0  0
M  END
$$$$
